@<TRIPOS>MOLECULE
****
45 48 1 0 0
SMALL
USER_CHARGES


@<TRIPOS>ATOM
      1 C          -4.5784   -0.7452   -0.0217 C.2       1     ****    0.0000
      2 C          -4.9191    0.5309   -0.3610 C.2       1     ****    0.0000
      3 C          -3.3242   -1.0681    0.3782 C.ar      1     ****    0.0000
      4 C          -5.4832   -1.7479   -0.1795 C.ar      1     ****    0.0000
      5 C          -3.8561    1.4432   -0.9810 C.3       1     ****    0.0000
      6 C          -6.1802    1.0273   -0.2142 C.ar      1     ****    0.0000
      7 C          -5.5069   -2.8427    0.6093 C.ar      1     ****    0.0000
      8 C          -6.4121   -3.8210    0.4516 C.ar      1     ****    0.0000
      9 C          -7.3464   -3.7626   -0.5098 C.ar      1     ****    0.0000
     10 C          -7.3345   -2.6810   -1.3036 C.ar      1     ****    0.0000
     11 C          -6.4305   -1.7028   -1.1406 C.ar      1     ****    0.0000
     12 C          -6.5873    2.1628   -0.8235 C.ar      1     ****    0.0000
     13 C          -7.8205    2.6715   -0.6713 C.ar      1     ****    0.0000
     14 C          -8.7083    2.0639    0.1257 C.ar      1     ****    0.0000
     15 C          -8.3312    0.9553    0.7745 C.ar      1     ****    0.0000
     16 C          -7.0930    0.4634    0.6086 C.ar      1     ****    0.0000
     17 N          -3.6870    2.7203   -0.2630 N.ar      1     ****    0.0000
     18 C          -3.9932    2.9486    0.9446 C.ar      1     ****    0.0000
     19 N          -3.7271    4.1503    1.2425 N.ar      1     ****    0.0000
     20 C          -3.2484    4.6587    0.1836 C.ar      1     ****    0.0000
     21 C          -3.2101    3.7576   -0.8097 C.ar      1     ****    0.0000
     22 O          -8.2693   -4.7474   -0.6757 O.3       1     ****    0.0000
     23 C          -2.4070   -0.2709    0.9545 C.ar      1     ****    0.0000
     24 S          -1.1290   -0.9050    1.2882 S.2       1     ****    0.0000
     25 C          -1.4868   -2.2365    0.7955 C.ar      1     ****    0.0000
     26 C          -2.7230   -2.2667    0.2829 C.ar      1     ****    0.0000
     27 O          -0.6036   -3.2703    0.8313 O.3       1     ****    0.0000
     28 H          -2.8642    0.9602   -1.1098 H         1     ****    0.0000
     29 H          -4.1491    1.6255   -2.0416 H         1     ****    0.0000
     30 H          -4.8160   -2.9513    1.4629 H         1     ****    0.0000
     31 H          -6.4036   -4.6863    1.1361 H         1     ****    0.0000
     32 H          -8.0812   -2.6019   -2.1116 H         1     ****    0.0000
     33 H          -6.4762   -0.8706   -1.8640 H         1     ****    0.0000
     34 H          -5.9362    2.7310   -1.5051 H         1     ****    0.0000
     35 H          -8.1094    3.5949   -1.2019 H         1     ****    0.0000
     36 H          -9.7204    2.4793    0.2611 H         1     ****    0.0000
     37 H          -9.0369    0.4618    1.4647 H         1     ****    0.0000
     38 H          -6.8544   -0.4115    1.2342 H         1     ****    0.0000
     39 H          -4.4258    2.2110    1.6288 H         1     ****    0.0000
     40 H          -2.9197    5.7045    0.1229 H         1     ****    0.0000
     41 H          -2.8698    3.8325   -1.8467 H         1     ****    0.0000
     42 H          -8.8501   -4.5138   -1.4178 H         1     ****    0.0000
     43 H          -2.5706    0.7743    1.2402 H         1     ****    0.0000
     44 H          -3.1356   -3.1776   -0.1733 H         1     ****    0.0000
     45 H           0.3093   -2.9408    0.8118 H         1     ****    0.0000
@<TRIPOS>BOND
     1     1     2     2
     2     1     3     1
     3     1     4     1
     4     2     5     1
     5     2     6     1
     6     3    23     2
     7     3    26     1
     8     4     7     1
     9     4    11     2
    10     5    17     1
    11     5    28     1
    12     5    29     1
    13     6    12     1
    14     6    16     2
    15     7     8     2
    16     7    30     1
    17     8     9     1
    18     8    31     1
    19     9    10     2
    20     9    22     1
    21    10    11     1
    22    10    32     1
    23    11    33     1
    24    12    13     2
    25    12    34     1
    26    13    14     1
    27    13    35     1
    28    14    15     2
    29    14    36     1
    30    15    16     1
    31    15    37     1
    32    16    38     1
    33    17    18     1
    34    17    21     1
    35    18    19     2
    36    18    39     1
    37    19    20     1
    38    20    21     2
    39    20    40     1
    40    21    41     1
    41    22    42     1
    42    23    24     1
    43    23    43     1
    44    24    25     1
    45    25    26     2
    46    25    27     1
    47    26    44     1
    48    27    45     1
