REMARK  7 active torsions:
REMARK  status: ('A' for Active; 'I' for Inactive)
REMARK    1  A    between atoms: C_1  and  C_4 
REMARK    2  A    between atoms: C_1  and  C_3 
REMARK    3  A    between atoms: C_2  and  C_6 
REMARK    4  A    between atoms: C_2  and  C_5 
REMARK    5  A    between atoms: C_5  and  N_17 
REMARK    6  A    between atoms: C_9  and  O_22 
REMARK    7  A    between atoms: C_25  and  O_27 
ROOT
HETATM    1  C   ***     1     -10.883  48.972 333.311  1.00  0.00    -0.006 C 
HETATM    2  C   ***     1     -11.776  48.821 332.291  1.00  0.00    -0.018 C 
ENDROOT
BRANCH   1   3
HETATM    3  C   ***     1      -9.565  48.713 333.095  1.00  0.00    -0.024 A 
HETATM    4  C   ***     1      -8.740  48.263 334.063  1.00  0.00     0.015 A 
HETATM    5  C   ***     1      -7.443  48.001 333.835  1.00  0.00     0.037 A 
HETATM    6  C   ***     1      -6.895  48.177 332.623  1.00  0.00     0.065 A 
HETATM    7  C   ***     1      -7.703  48.626 331.650  1.00  0.00     0.037 A 
HETATM    8  C   ***     1      -9.000  48.884 331.881  1.00  0.00     0.015 A 
BRANCH   6   9
HETATM    9  O   ***     1      -5.584  47.912 332.382  1.00  0.00    -0.361 OA
HETATM   10  H   ***     1      -5.389  48.102 331.450  1.00  0.00     0.217 HD
ENDBRANCH   6   9
ENDBRANCH   1   3
BRANCH   1  11
HETATM   11  C   ***     1     -11.251  49.470 334.516  1.00  0.00    -0.015 A 
HETATM   12  C   ***     1     -10.469  50.104 335.408  1.00  0.00     0.057 A 
HETATM   13  C   ***     1     -11.156  50.445 336.505  1.00  0.00     0.107 A 
HETATM   14  S   ***     1     -12.565  50.058 336.414  1.00  0.00    -0.077 SA
HETATM   15  C   ***     1     -12.468  49.443 335.088  1.00  0.00     0.064 A 
BRANCH  13  16
HETATM   16  O   ***     1     -10.671  51.120 337.582  1.00  0.00    -0.354 OA
HETATM   17  H   ***     1     -11.376  51.632 338.010  1.00  0.00     0.218 HD
ENDBRANCH  13  16
ENDBRANCH   1  11
BRANCH   2  18
HETATM   18  C   ***     1     -11.651  47.864 331.329  1.00  0.00    -0.027 A 
HETATM   19  C   ***     1     -12.344  47.908 330.170  1.00  0.00     0.012 A 
HETATM   20  C   ***     1     -12.244  46.961 329.223  1.00  0.00     0.001 A 
HETATM   21  C   ***     1     -11.444  45.903 329.407  1.00  0.00     0.000 A 
HETATM   22  C   ***     1     -10.767  45.807 330.558  1.00  0.00     0.001 A 
HETATM   23  C   ***     1     -10.882  46.764 331.492  1.00  0.00     0.012 A 
ENDBRANCH   2  18
BRANCH   2  24
HETATM   24  C   ***     1     -12.952  49.797 332.185  1.00  0.00     0.169 C 
BRANCH  24  25
HETATM   25  N   ***     1     -14.266  49.129 332.132  1.00  0.00    -0.346 N 
HETATM   26  C   ***     1     -14.534  47.965 332.552  1.00  0.00     0.209 A 
HETATM   27  N   ***     1     -15.754  47.696 332.344  1.00  0.00    -0.255 NA
HETATM   28  C   ***     1     -16.232  48.727 331.783  1.00  0.00     0.135 A 
HETATM   29  C   ***     1     -15.293  49.673 331.631  1.00  0.00     0.111 A 
ENDBRANCH  24  25
ENDBRANCH   2  24
TORSDOF 7
